***,H2O

GEOMETRY={
ANGSTROM
O 
H 1 B1
H 1 B2 2 A1
}
B1= 0.9409240
B2= 0.9409240
A1= 105.46291

SET,CHARGE=0
SET,SPIN=0
BASIS=6-311G**
HF
FREQUENCIES
THERMO


---
